Circuit: *** SPICE deck for cell GDI-DFF{lay} from library GDI

Ignoring BSIM parameter XL
Ignoring BSIM parameter XW
Ignoring BSIM parameter XL
Ignoring BSIM parameter XW
Direct Newton iteration for .op point succeeded.

Date: Sun Oct 03 10:50:57 2021
Total elapsed time: 0.172 seconds.

tnom = 27
temp = 27
method = modified trap
totiter = 5322
traniter = 5278
tranpoints = 2465
accept = 2208
rejected = 257
matrix size = 16
fillins = 6
solver = Normal
Matrix Compiler1: 1.28 KB object code size  0.3/0.1/[0.1]
Matrix Compiler2: 1.91 KB object code size  0.3/0.2/[0.2]


