ircuit: *** SPICE deck for cell flip_flop_MS{lay} from library D_flip_flop_MS

Ignoring BSIM parameter XL
Ignoring BSIM parameter XW
Ignoring BSIM parameter XL
Ignoring BSIM parameter XW
Direct Newton iteration for .op point succeeded.

Date: Sun Oct 03 10:49:01 2021
Total elapsed time: 0.292 seconds.

tnom = 27
temp = 27
method = modified trap
totiter = 5714
traniter = 5679
tranpoints = 2538
accept = 2235
rejected = 303
matrix size = 24
fillins = 12
solver = Normal
Thread vector: 28.9/23.9[3] 8.0/4.3[3] 2.2/2.6[1] 0.1/1.3[1]  2592/500
Matrix Compiler1: 3.19 KB object code size  0.5/0.3/[0.2]
Matrix Compiler2: 2.90 KB object code size  0.3/0.4/[0.2]


