Circuit: * C:\Sai\GDI\Draft1.asc

WARNING: Less than two connections to node NC_01.  This node is used by V1.
WARNING: Less than two connections to node NC_02.  This node is used by V2.
Direct Newton iteration for .op point succeeded.

Date: Wed Sep 29 07:00:31 2021
Total elapsed time: 0.043 seconds.

tnom = 27
temp = 27
method = modified trap
totiter = 2769
traniter = 2766
tranpoints = 1384
accept = 1331
rejected = 53
matrix size = 4
fillins = 0
solver = Normal
Matrix Compiler1: off  [0.0]/0.1/0.0
Matrix Compiler2:      16 opcodes  0.1/[0.0]/0.0


