Circuit: *** SPICE deck for cell GDI{lay} from library GDI

Ignoring BSIM parameter XL
Ignoring BSIM parameter XW
Ignoring BSIM parameter XL
Ignoring BSIM parameter XW
WARNING: Node VDD is floating.

WARNING: Less than two connections to node VDD.  This node is used by MPMOS@1.
.OP point found by inspection.

Date: Sat Sep 25 23:05:28 2021
Total elapsed time: 0.094 seconds.

tnom = 27
temp = 27
method = modified trap
totiter = 4556
traniter = 4556
tranpoints = 2144
accept = 1956
rejected = 188
matrix size = 8
fillins = 0
solver = Normal
Matrix Compiler1:      18 opcodes  0.1/[0.1]/0.1
Matrix Compiler2: 636 bytes object code size  0.2/0.2/[0.1]


