Circuit: *** SPICE deck for cell GDI{lay} from library GDI

Ignoring BSIM parameter XL
Ignoring BSIM parameter XW
Ignoring BSIM parameter XL
Ignoring BSIM parameter XW
WARNING: Node VDD is floating.

WARNING: Less than two connections to node VDD.  This node is used by MPMOS@1.
.OP point found by inspection.

Date: Tue Sep 21 16:30:25 2021
Total elapsed time: 0.083 seconds.

tnom = 27
temp = 27
method = modified trap
totiter = 3333
traniter = 3333
tranpoints = 1585
accept = 1488
rejected = 97
matrix size = 6
fillins = 0
solver = Normal
Matrix Compiler1: 218 bytes object code size  0.2/0.1/[0.1]
Matrix Compiler2: 476 bytes object code size  0.2/0.3/[0.0]


