Circuit: *** SPICE deck for cell flip_flop_MS{lay} from library D_flip_flop_MS

Ignoring BSIM parameter XL
Ignoring BSIM parameter XW
Ignoring BSIM parameter XL
Ignoring BSIM parameter XW
Direct Newton iteration for .op point succeeded.

Date: Sun Sep 19 09:47:09 2021
Total elapsed time: 0.937 seconds.

tnom = 27
temp = 27
method = modified trap
totiter = 5714
traniter = 5679
tranpoints = 2538
accept = 2235
rejected = 303
matrix size = 24
fillins = 12
solver = Normal
Thread vector: 756.0/23.1[3] 9.5/3.7[3] 2.9/1.8[3] 0.1/1.7[1]  2592/500
Matrix Compiler1: 3.19 KB object code size  0.6/0.6/[0.4]
Matrix Compiler2: 2.90 KB object code size  0.4/0.6/[0.2]


